%nprocshared=8
%chk=conf2.chk
#p B3LYP/aug-cc-pVDZ Density=Current NoSymm

Trp DFT single point to obtain ESP grid

0 1
C     -2.377   1.202  -0.228  
O     -3.398   0.607  -0.487  
O     -2.324   2.559  -0.525  
H     -3.160   2.891  -0.861  
N     -1.019  -0.587   1.186  
C     -0.969   0.648   0.266  
H     -0.518   1.479   0.788  
C     -0.146   0.170  -0.950  
H     -0.574  -0.791  -1.308  
H     -0.206   0.766  -1.886  
C      1.361   0.078  -0.700  
C      2.215   1.086  -0.977  
H      1.903   2.010  -1.441  
N      3.499   0.729  -0.797  
H      4.175   1.386  -0.541  
C      3.537  -0.502  -0.254  
C      2.219  -0.992  -0.252  
C      1.908  -2.208   0.364  
H      0.856  -2.437   0.456  
C      2.979  -3.037   0.842  
H      2.787  -4.032   1.214  
C      4.547  -1.233   0.298  
H      5.587  -0.945   0.270  
C      4.218  -2.480   0.767  
H      5.052  -3.140   0.956  
H     -0.179  -0.867   1.577  
H     -1.816  -1.155   1.115  

